Version 4
SHEET 1 1772 1192
WIRE -96 -144 -192 -144
WIRE 32 -144 -96 -144
WIRE 576 -144 32 -144
WIRE -192 -128 -192 -144
WIRE -96 -128 -96 -144
WIRE 80 -96 64 -96
WIRE 160 -96 144 -96
WIRE 224 -96 160 -96
WIRE 368 -96 288 -96
WIRE 464 -96 368 -96
WIRE 832 -96 464 -96
WIRE 368 -80 368 -96
WIRE 832 -80 832 -96
WIRE -192 -32 -192 -48
WIRE 368 0 368 -16
WIRE 32 16 32 -144
WIRE 160 16 160 -96
WIRE 832 16 832 0
WIRE 576 64 576 -144
WIRE 832 64 576 64
WIRE 976 64 880 64
WIRE 1088 64 1040 64
WIRE 1184 64 1088 64
WIRE 576 80 576 64
WIRE 832 80 832 64
WIRE 880 80 880 64
WIRE 1088 80 1088 64
WIRE 1184 80 1184 64
WIRE -192 96 -208 96
WIRE -96 96 -96 -48
WIRE -96 96 -112 96
WIRE -64 96 -96 96
WIRE 368 96 368 80
WIRE 368 96 256 96
WIRE 464 96 464 -96
WIRE 576 176 576 144
WIRE 880 176 880 160
WIRE 1088 176 1088 144
WIRE 1184 176 1184 160
WIRE -144 192 -160 192
WIRE -64 192 -80 192
WIRE 368 192 256 192
WIRE 464 192 464 176
WIRE 464 192 368 192
WIRE 464 208 464 192
WIRE 576 272 576 240
WIRE -64 288 -80 288
WIRE 272 288 256 288
WIRE 368 288 368 192
WIRE 368 288 352 288
WIRE 464 304 464 288
WIRE 576 352 576 336
WIRE 832 352 832 160
WIRE 832 352 576 352
WIRE 576 368 576 352
WIRE 368 384 256 384
WIRE 368 448 368 384
WIRE 528 448 368 448
WIRE -224 480 -256 480
WIRE -128 480 -144 480
WIRE -64 480 -128 480
WIRE 576 480 576 464
WIRE 576 480 256 480
WIRE -256 496 -256 480
WIRE -128 496 -128 480
WIRE 576 496 576 480
WIRE -256 576 -256 560
WIRE -128 576 -128 560
WIRE 32 576 32 560
WIRE 160 576 160 560
WIRE 576 592 576 576
WIRE 32 672 32 656
FLAG -192 -32 0
FLAG -128 576 0
FLAG 1088 176 0
FLAG 880 176 0
FLAG 1184 176 0
FLAG -192 -144 IN
FLAG 1184 64 OUT
FLAG 160 576 0
FLAG 32 672 0
FLAG 464 304 0
FLAG 832 16 0
FLAG -80 288 0
FLAG -160 192 0
FLAG -256 576 0
FLAG 576 592 0
FLAG 64 -96 0
FLAG -208 96 0
SYMBOL voltage -192 -144 R0
WINDOW 123 0 0 Left 2
WINDOW 39 0 0 Left 2
SYMATTR InstName V1
SYMATTR Value 400
SYMBOL cap -144 560 M180
WINDOW 0 24 56 Left 2
WINDOW 3 24 8 Left 2
WINDOW 39 24 -13 Left 2
SYMATTR InstName C1
SYMATTR Value 47p
SYMBOL ind2 816 64 R0
WINDOW 0 -3 37 Right 2
WINDOW 3 -4 74 Right 2
SYMATTR InstName L1
SYMATTR Value 81.49µ
SYMATTR SpiceLine Rser=0.39
SYMATTR Type ind
SYMBOL ind2 896 176 R180
WINDOW 0 -2 77 Right 2
WINDOW 3 -1 41 Right 2
SYMATTR InstName L2
SYMATTR Value 4.34µ
SYMATTR SpiceLine Rser=0.009 Cpar=0.5p
SYMATTR Type ind
SYMBOL cap 1072 80 R0
SYMATTR SpiceLine Rser=3.5m
SYMATTR InstName C2
SYMATTR Value 1.32m
SYMBOL res 16 560 R0
SYMATTR InstName R2
SYMATTR Value 56.2K
SYMBOL cap 352 -80 R0
SYMATTR InstName C3
SYMATTR Value 47p
SYMBOL res 352 -16 R0
SYMATTR InstName R3
SYMATTR Value 10K
SYMBOL res 368 272 R90
WINDOW 0 0 56 VBottom 2
WINDOW 3 32 56 VTop 2
SYMATTR InstName R5
SYMATTR Value 121K
SYMBOL res 448 80 R0
SYMATTR InstName R6
SYMATTR Value 47K
SYMBOL res 448 192 R0
SYMATTR InstName R7
SYMATTR Value 5K
SYMBOL ind2 816 16 M180
WINDOW 0 40 88 Left 2
WINDOW 3 42 38 Left 2
SYMATTR InstName L3
SYMATTR Value 4.34µ
SYMATTR SpiceLine Rser=0.12
SYMATTR Type ind
SYMBOL cap -80 176 R90
WINDOW 0 0 32 VBottom 2
WINDOW 3 32 32 VTop 2
SYMATTR InstName C5
SYMATTR Value 4.7µ
SYMBOL res -128 464 R90
WINDOW 0 0 56 VBottom 2
WINDOW 3 32 56 VTop 2
SYMATTR InstName R8
SYMATTR Value 10K
SYMBOL cap -272 496 R0
SYMATTR InstName C6
SYMATTR Value .1µ
SYMBOL res 1168 64 R0
SYMATTR InstName Rload
SYMATTR Value 1.44
SYMBOL PowerProducts\\LT8316 96 288 R0
SYMATTR InstName U1
SYMBOL res 560 480 R0
SYMATTR InstName R4
SYMATTR Value 10m
SYMBOL cap 144 -112 R90
WINDOW 0 0 32 VBottom 2
WINDOW 3 32 32 VTop 2
SYMATTR InstName C4
SYMATTR Value 4.7µ
SYMBOL res -112 -144 R0
SYMATTR InstName R1
SYMATTR Value 1.5Meg
SYMBOL res -96 80 R90
WINDOW 0 0 56 VBottom 2
WINDOW 3 32 56 VTop 2
SYMATTR InstName R10
SYMATTR Value 9.2K
SYMBOL diode 288 -112 R90
WINDOW 0 0 32 VBottom 2
WINDOW 3 32 32 VTop 2
SYMATTR InstName SK115
SYMBOL diode 976 80 R270
WINDOW 0 32 32 VTop 2
WINDOW 3 0 32 VBottom 2
SYMATTR InstName STPS30170DJF-TR
SYMBOL diode 592 336 R180
WINDOW 0 -68 29 Left 2
WINDOW 3 24 0 Left 2
SYMATTR InstName ES1H
SYMBOL zener 560 80 R0
SYMATTR InstName Z2SMB100
SYMBOL zener 560 176 R0
SYMATTR InstName Z2SMB100-2
SYMBOL nmos 528 368 R0
WINDOW 0 58 22 Left 2
SYMATTR InstName IPD50R500CEAUMA1
SYMATTR Value STW11NM80
TEXT 720 56 Bottom 2 !K1 L1 L2 L3 1
TEXT 720 24 Bottom 2 ;4:1:1
TEXT 912 664 Left 2 !.model SK115 D(Ron=1 Roff=10Meg Vrev=150 Vf=0.85V)
TEXT 912 624 Left 2 !.model STPS30170DJF-TR D(Ron=0.114 Roff=10Meg Vrev=170 Vf=0.71)
TEXT 912 584 Left 2 !.model ES1H D(Ron=1 Roff=10Meg Vrev=500 Vf=1.7)
TEXT 912 552 Left 2 !.model Z2SMB100 D(Bv=100 Type=Zener)
TEXT 912 520 Left 2 !.model Z2SMB100-2 D(Bv=100 Type=Zener)
TEXT 912 488 Left 2 !.tran 160m startup
